<?xml version="1.0" encoding="UTF-8"?>

<routes>
	<route edges="S25_H S26_H S27_H S28_H S29_H S30_H S31_H S32_H S33_H S34_H S35_H S36_H S37_H S38_M S39_M S40_M S41_M S42_F" id="S25_H_S42_F"/>
	<route edges="S25_H S26_H S27_H S28_H S29_H S30_H S31_H S32_H S33_H S34_H S35_H S36_H S37_H S38_M S39_H S40_H S41_H S42_H S43_M S44_M S45_M S46_M S47_F" id="S25_H_S47_F"/>
	<route edges="S25_H S26_H S27_H S28_H S29_H S30_H S31_H S32_H S33_H S34_H S35_H S36_H S37_H S38_M S39_H S40_H S41_H S42_H S43_M S44_M S45_M S46_M S47_M S48_M S49_M S50_M S51_M S52_F" id="S25_H_S52_F"/>
	<route edges="S25_H S26_H S27_H S28_H S29_H S30_H S31_H S32_H S33_H S34_H S35_H S36_H S37_H S38_M S39_H S40_H S41_H S42_H S43_M S44_M S45_M S46_M S47_M S48_M S49_M S50_M S51_M S52_M S53_M S54_F" id="S25_H_S54_F"/>
	<route edges="S25_H S26_H S27_H S28_H S29_H S30_H S31_H S32_H S33_H S34_H S35_H S36_H S37_H S38_M S39_H S40_H S41_H S42_H S43_M S44_M S45_M S46_M S47_M S48_M S49_M S50_M S51_M S52_M S53_M S54_M S55_F" id="S25_H_S55_F"/>
	<route edges="S25_H S26_H S27_H S28_H S29_H S30_H S31_H S32_H S33_H S34_H S35_H S36_H S37_H S38_M S39_H S40_H S41_H S42_H S43_M S44_H S45_H S46_H S47_H S48_H S49_H S50_H S51_H S52_H S53_H S54_H S55_H S56_M S57_M S58_M S59_M S60_M S61_M S62_F" id="S25_H_S62_F"/>
	<route edges="S25_H S26_H S27_H S28_H S29_H S30_H S31_H S32_H S33_H S34_H S35_H S36_H S37_H S38_M S39_H S40_H S41_H S42_H S43_M S44_H S45_H S46_H S47_H S48_H S49_H S50_H S51_H S52_H S53_H S54_H S55_H S56_M S57_M S58_M S59_M S60_M S61_M S62_M S63_F_0 S64_O_6 S63_F_1" id="S25_H_S63_F"/>
	<route edges="S25_H S26_H S27_H S28_H S29_H S30_H S31_H S32_H S33_H S34_H S35_H S36_H S37_H S38_M S39_H S40_H S41_H S42_H S43_M S44_H S45_H S46_H S47_H S48_H S49_H S50_H S51_H S52_H S53_H S54_H S55_H S56_M S57_H S58_H S59_H S60_H S61_H S62_H S63_H S64_H S65_H S66_H S67_H S68_M S69_M S70_M S71_F" id="S25_H_S71_F"/>
	<route edges="S25_H S26_H S27_H S28_H S29_H S30_H S31_H S32_H S33_H S34_H S35_H S36_H S37_H S38_M S39_H S40_H S41_H S42_H S43_M S44_H S45_H S46_H S47_H S48_H S49_H S50_H S51_H S52_H S53_H S54_H S55_H S56_M S57_H S58_H S59_H S60_H S61_H S62_H S63_H S64_H S65_H S66_H S67_H S68_M S69_H S70_H S71_H" id="S25_H_S71_H"/>
	<route edges="S25_M S26_M S27_M S28_F" id="S25_M_S28_F"/>
	<route edges="S25_M S26_M S27_M S28_M S29_F" id="S25_M_S29_F"/>
	<route edges="S25_M S26_M S27_M S28_M S29_M S30_M S31_M S32_F" id="S25_M_S32_F"/>
	<route edges="S25_M S26_M S27_M S28_M S29_M S30_M S31_M S32_M S33_M S34_M S35_M S36_M S37_F" id="S25_M_S37_F"/>
	<route edges="S25_M S26_M S27_M S28_M S29_M S30_M S31_M S32_M S33_M S34_M S35_M S36_M S37_M S38_M S39_M S40_M S41_M S42_F" id="S25_M_S42_F"/>
	<route edges="S25_M S26_M S27_M S28_M S29_M S30_M S31_M S32_M S33_M S34_M S35_M S36_M S37_M S38_M S39_M S40_M S41_M S42_M S43_M S44_M S45_M S46_M S47_F" id="S25_M_S47_F"/>
	<route edges="S25_M S26_M S27_M S28_M S29_M S30_M S31_M S32_M S33_M S34_M S35_M S36_M S37_M S38_M S39_M S40_M S41_M S42_M S43_M S44_M S45_M S46_M S47_M S48_M S49_M S50_M S51_M S52_F" id="S25_M_S52_F"/>
	<route edges="S25_M S26_M S27_M S28_M S29_M S30_M S31_M S32_M S33_M S34_M S35_M S36_M S37_M S38_M S39_M S40_M S41_M S42_M S43_M S44_M S45_M S46_M S47_M S48_M S49_M S50_M S51_M S52_M S53_M S54_F" id="S25_M_S54_F"/>
	<route edges="S25_M S26_M S27_M S28_M S29_M S30_M S31_M S32_M S33_M S34_M S35_M S36_M S37_M S38_M S39_M S40_M S41_M S42_M S43_M S44_M S45_M S46_M S47_M S48_M S49_M S50_M S51_M S52_M S53_M S54_M S55_F" id="S25_M_S55_F"/>
	<route edges="S25_M S26_M S27_M S28_M S29_M S30_M S31_M S32_M S33_M S34_M S35_M S36_M S37_M S38_M S39_M S40_M S41_M S42_M S43_M S44_M S45_M S46_M S47_M S48_M S49_M S50_M S51_M S52_M S53_M S54_M S55_M S56_M S57_M S58_M S59_M S60_M S61_M S62_F" id="S25_M_S62_F"/>
	<route edges="S25_M S26_M S27_M S28_M S29_M S30_M S31_M S32_M S33_M S34_M S35_M S36_M S37_M S38_M S39_M S40_M S41_M S42_M S43_M S44_M S45_M S46_M S47_M S48_M S49_M S50_M S51_M S52_M S53_M S54_M S55_M S56_M S57_M S58_M S59_M S60_M S61_M S62_M S63_F_0 S64_O_6 S63_F_1" id="S25_M_S63_F"/>
	<route edges="S25_M S26_M S27_M S28_M S29_M S30_M S31_M S32_M S33_M S34_M S35_M S36_M S37_M S38_M S39_M S40_M S41_M S42_M S43_M S44_M S45_M S46_M S47_M S48_M S49_M S50_M S51_M S52_M S53_M S54_M S55_M S56_M S57_M S58_M S59_M S60_M S61_M S62_M S63_M S64_M S65_M S66_M S67_M S68_M S69_M S70_M S71_F" id="S25_M_S71_F"/>
	<route edges="S25_M S26_M S27_M S28_M S29_M S30_M S31_M S32_M S33_M S34_M S35_M S36_M S37_M S38_M S39_M S40_M S41_M S42_M S43_M S44_M S45_M S46_M S47_M S48_M S49_M S50_M S51_M S52_M S53_M S54_M S55_M S56_M S57_M S58_M S59_M S60_M S61_M S62_M S63_M S64_M S65_M S66_M S67_M S68_M S69_M S70_M S71_M" id="S25_M_S71_M"/>
	<route edges="S26_O_0 S26_O_1 S26_O_2 S26_O_3 S26_O_4 S26_M S27_M S28_F" id="S26_O_S28_F"/>
	<route edges="S26_O_0 S26_O_1 S26_O_2 S26_O_3 S26_O_4 S26_M S27_M S28_M S29_F" id="S26_O_S29_F"/>
	<route edges="S26_O_0 S26_O_1 S26_O_2 S26_O_3 S26_O_4 S26_M S27_M S28_M S29_M S30_M S31_M S32_F" id="S26_O_S32_F"/>
	<route edges="S26_O_0 S26_O_1 S26_O_2 S26_O_3 S26_O_4 S26_M S27_M S28_M S29_M S30_M S31_M S32_M S33_M S34_M S35_M S36_M S37_F" id="S26_O_S37_F"/>
	<route edges="S26_O_0 S26_O_1 S26_O_2 S26_O_3 S26_O_4 S26_M S27_M S28_M S29_M S30_M S31_M S32_M S33_M S34_M S35_M S36_M S37_M S38_M S39_M S40_M S41_M S42_F" id="S26_O_S42_F"/>
	<route edges="S26_O_0 S26_O_1 S26_O_2 S26_O_3 S26_O_4 S26_M S27_M S28_M S29_M S30_M S31_M S32_M S33_M S34_M S35_M S36_M S37_M S38_M S39_M S40_M S41_M S42_M S43_M S44_M S45_M S46_M S47_F" id="S26_O_S47_F"/>
	<route edges="S26_O_0 S26_O_1 S26_O_2 S26_O_3 S26_O_4 S26_M S27_M S28_M S29_M S30_M S31_M S32_M S33_M S34_M S35_M S36_M S37_M S38_M S39_M S40_M S41_M S42_M S43_M S44_M S45_M S46_M S47_M S48_M S49_M S50_M S51_M S52_F" id="S26_O_S52_F"/>
	<route edges="S26_O_0 S26_O_1 S26_O_2 S26_O_3 S26_O_4 S26_M S27_M S28_M S29_M S30_M S31_M S32_M S33_M S34_M S35_M S36_M S37_M S38_M S39_M S40_M S41_M S42_M S43_M S44_M S45_M S46_M S47_M S48_M S49_M S50_M S51_M S52_M S53_M S54_F" id="S26_O_S54_F"/>
	<route edges="S26_O_0 S26_O_1 S26_O_2 S26_O_3 S26_O_4 S26_M S27_M S28_M S29_M S30_M S31_M S32_M S33_M S34_M S35_M S36_M S37_M S38_M S39_M S40_M S41_M S42_M S43_M S44_M S45_M S46_M S47_M S48_M S49_M S50_M S51_M S52_M S53_M S54_M S55_F" id="S26_O_S55_F"/>
	<route edges="S26_O_0 S26_O_1 S26_O_2 S26_O_3 S26_O_4 S26_M S27_M S28_M S29_M S30_M S31_M S32_M S33_M S34_M S35_M S36_M S37_M S38_M S39_M S40_M S41_M S42_M S43_M S44_M S45_M S46_M S47_M S48_M S49_M S50_M S51_M S52_M S53_M S54_M S55_M S56_M S57_M S58_M S59_M S60_M S61_M S62_F" id="S26_O_S62_F"/>
	<route edges="S26_O_0 S26_O_1 S26_O_2 S26_O_3 S26_O_4 S26_M S27_M S28_M S29_M S30_M S31_M S32_M S33_M S34_M S35_M S36_M S37_M S38_M S39_M S40_M S41_M S42_M S43_M S44_M S45_M S46_M S47_M S48_M S49_M S50_M S51_M S52_M S53_M S54_M S55_M S56_M S57_M S58_M S59_M S60_M S61_M S62_M S63_F_0 S64_O_6 S63_F_1" id="S26_O_S63_F"/>
	<route edges="S26_O_0 S26_O_1 S26_O_2 S26_O_3 S26_O_4 S26_M S27_M S28_M S29_M S30_M S31_M S32_M S33_M S34_M S35_M S36_M S37_M S38_M S39_M S40_M S41_M S42_M S43_M S44_M S45_M S46_M S47_M S48_M S49_M S50_M S51_M S52_M S53_M S54_M S55_M S56_M S57_M S58_M S59_M S60_M S61_M S62_M S63_M S64_M S65_M S66_M S67_M S68_M S69_M S70_M S71_F" id="S26_O_S71_F"/>
	<route edges="S26_O_0 S26_O_1 S26_O_2 S26_O_3 S26_O_4 S26_M S27_M S28_M S29_M S30_M S31_M S32_M S33_M S34_M S35_M S36_M S37_M S38_M S39_H S40_H S41_H S42_H S43_M S44_H S45_H S46_H S47_H S48_H S49_H S50_H S51_H S52_H S53_H S54_H S55_H S56_M S57_H S58_H S59_H S60_H S61_H S62_H S63_H S64_H S65_H S66_H S67_H S68_M S69_H S70_H S71_H" id="S26_O_S71_H"/>
	<route edges="S26_O_0 S26_O_1 S26_O_2 S26_O_3 S26_O_4 S26_M S27_M S28_M S29_M S30_M S31_M S32_M S33_M S34_M S35_M S36_M S37_M S38_M S39_M S40_M S41_M S42_M S43_M S44_M S45_M S46_M S47_M S48_M S49_M S50_M S51_M S52_M S53_M S54_M S55_M S56_M S57_M S58_M S59_M S60_M S61_M S62_M S63_M S64_M S65_M S66_M S67_M S68_M S69_M S70_M S71_M" id="S26_O_S71_M"/>
	<route edges="S30_O_0 S30_O_1 S30_O_2 S30_O_3 S30_O_4 S30_M S31_M S32_F" id="S30_O_S32_F"/>
	<route edges="S30_O_0 S30_O_1 S30_O_2 S30_O_3 S30_O_4 S30_M S31_M S32_M S33_M S34_M S35_M S36_M S37_F" id="S30_O_S37_F"/>
	<route edges="S30_O_0 S30_O_1 S30_O_2 S30_O_3 S30_O_4 S30_M S31_M S32_M S33_M S34_M S35_M S36_M S37_M S38_M S39_M S40_M S41_M S42_F" id="S30_O_S42_F"/>
	<route edges="S30_O_0 S30_O_1 S30_O_2 S30_O_3 S30_O_4 S30_M S31_M S32_M S33_M S34_M S35_M S36_M S37_M S38_M S39_M S40_M S41_M S42_M S43_M S44_M S45_M S46_M S47_F" id="S30_O_S47_F"/>
	<route edges="S30_O_0 S30_O_1 S30_O_2 S30_O_3 S30_O_4 S30_M S31_M S32_M S33_M S34_M S35_M S36_M S37_M S38_M S39_M S40_M S41_M S42_M S43_M S44_M S45_M S46_M S47_M S48_M S49_M S50_M S51_M S52_F" id="S30_O_S52_F"/>
	<route edges="S30_O_0 S30_O_1 S30_O_2 S30_O_3 S30_O_4 S30_M S31_M S32_M S33_M S34_M S35_M S36_M S37_M S38_M S39_M S40_M S41_M S42_M S43_M S44_M S45_M S46_M S47_M S48_M S49_M S50_M S51_M S52_M S53_M S54_F" id="S30_O_S54_F"/>
	<route edges="S30_O_0 S30_O_1 S30_O_2 S30_O_3 S30_O_4 S30_M S31_M S32_M S33_M S34_M S35_M S36_M S37_M S38_M S39_M S40_M S41_M S42_M S43_M S44_M S45_M S46_M S47_M S48_M S49_M S50_M S51_M S52_M S53_M S54_M S55_F" id="S30_O_S55_F"/>
	<route edges="S30_O_0 S30_O_1 S30_O_2 S30_O_3 S30_O_4 S30_M S31_M S32_M S33_M S34_M S35_M S36_M S37_M S38_M S39_M S40_M S41_M S42_M S43_M S44_M S45_M S46_M S47_M S48_M S49_M S50_M S51_M S52_M S53_M S54_M S55_M S56_M S57_M S58_M S59_M S60_M S61_M S62_F" id="S30_O_S62_F"/>
	<route edges="S30_O_0 S30_O_1 S30_O_2 S30_O_3 S30_O_4 S30_M S31_M S32_M S33_M S34_M S35_M S36_M S37_M S38_M S39_M S40_M S41_M S42_M S43_M S44_M S45_M S46_M S47_M S48_M S49_M S50_M S51_M S52_M S53_M S54_M S55_M S56_M S57_M S58_M S59_M S60_M S61_M S62_M S63_F_0 S64_O_6 S63_F_1" id="S30_O_S63_F"/>
	<route edges="S30_O_0 S30_O_1 S30_O_2 S30_O_3 S30_O_4 S30_M S31_M S32_M S33_M S34_M S35_M S36_M S37_M S38_M S39_M S40_M S41_M S42_M S43_M S44_M S45_M S46_M S47_M S48_M S49_M S50_M S51_M S52_M S53_M S54_M S55_M S56_M S57_M S58_M S59_M S60_M S61_M S62_M S63_M S64_M S65_M S66_M S67_M S68_M S69_M S70_M S71_F" id="S30_O_S71_F"/>
	<route edges="S30_O_0 S30_O_1 S30_O_2 S30_O_3 S30_O_4 S30_M S31_M S32_M S33_M S34_M S35_M S36_M S37_M S38_M S39_H S40_H S41_H S42_H S43_M S44_H S45_H S46_H S47_H S48_H S49_H S50_H S51_H S52_H S53_H S54_H S55_H S56_M S57_H S58_H S59_H S60_H S61_H S62_H S63_H S64_H S65_H S66_H S67_H S68_M S69_H S70_H S71_H" id="S30_O_S71_H"/>
	<route edges="S30_O_0 S30_O_1 S30_O_2 S30_O_3 S30_O_4 S30_M S31_M S32_M S33_M S34_M S35_M S36_M S37_M S38_M S39_M S40_M S41_M S42_M S43_M S44_M S45_M S46_M S47_M S48_M S49_M S50_M S51_M S52_M S53_M S54_M S55_M S56_M S57_M S58_M S59_M S60_M S61_M S62_M S63_M S64_M S65_M S66_M S67_M S68_M S69_M S70_M S71_M" id="S30_O_S71_M"/>
	<route edges="S33_O_0 S33_O_1 S33_O_2 S33_O_3 S33_O_4 S33_M S34_M S35_M S36_M S37_F" id="S33_O_S37_F"/>
	<route edges="S33_O_0 S33_O_1 S33_O_2 S33_O_3 S33_O_4 S33_M S34_M S35_M S36_M S37_M S38_M S39_M S40_M S41_M S42_F" id="S33_O_S42_F"/>
	<route edges="S33_O_0 S33_O_1 S33_O_2 S33_O_3 S33_O_4 S33_M S34_M S35_M S36_M S37_M S38_M S39_M S40_M S41_M S42_M S43_M S44_M S45_M S46_M S47_F" id="S33_O_S47_F"/>
	<route edges="S33_O_0 S33_O_1 S33_O_2 S33_O_3 S33_O_4 S33_M S34_M S35_M S36_M S37_M S38_M S39_M S40_M S41_M S42_M S43_M S44_M S45_M S46_M S47_M S48_M S49_M S50_M S51_M S52_F" id="S33_O_S52_F"/>
	<route edges="S33_O_0 S33_O_1 S33_O_2 S33_O_3 S33_O_4 S33_M S34_M S35_M S36_M S37_M S38_M S39_M S40_M S41_M S42_M S43_M S44_M S45_M S46_M S47_M S48_M S49_M S50_M S51_M S52_M S53_M S54_F" id="S33_O_S54_F"/>
	<route edges="S33_O_0 S33_O_1 S33_O_2 S33_O_3 S33_O_4 S33_M S34_M S35_M S36_M S37_M S38_M S39_M S40_M S41_M S42_M S43_M S44_M S45_M S46_M S47_M S48_M S49_M S50_M S51_M S52_M S53_M S54_M S55_F" id="S33_O_S55_F"/>
	<route edges="S33_O_0 S33_O_1 S33_O_2 S33_O_3 S33_O_4 S33_M S34_M S35_M S36_M S37_M S38_M S39_M S40_M S41_M S42_M S43_M S44_M S45_M S46_M S47_M S48_M S49_M S50_M S51_M S52_M S53_M S54_M S55_M S56_M S57_M S58_M S59_M S60_M S61_M S62_F" id="S33_O_S62_F"/>
	<route edges="S33_O_0 S33_O_1 S33_O_2 S33_O_3 S33_O_4 S33_M S34_M S35_M S36_M S37_M S38_M S39_M S40_M S41_M S42_M S43_M S44_M S45_M S46_M S47_M S48_M S49_M S50_M S51_M S52_M S53_M S54_M S55_M S56_M S57_M S58_M S59_M S60_M S61_M S62_M S63_F_0 S64_O_6 S63_F_1" id="S33_O_S63_F"/>
	<route edges="S33_O_0 S33_O_1 S33_O_2 S33_O_3 S33_O_4 S33_M S34_M S35_M S36_M S37_M S38_M S39_M S40_M S41_M S42_M S43_M S44_M S45_M S46_M S47_M S48_M S49_M S50_M S51_M S52_M S53_M S54_M S55_M S56_M S57_M S58_M S59_M S60_M S61_M S62_M S63_M S64_M S65_M S66_M S67_M S68_M S69_M S70_M S71_F" id="S33_O_S71_F"/>
	<route edges="S33_O_0 S33_O_1 S33_O_2 S33_O_3 S33_O_4 S33_M S34_M S35_M S36_M S37_M S38_M S39_H S40_H S41_H S42_H S43_M S44_H S45_H S46_H S47_H S48_H S49_H S50_H S51_H S52_H S53_H S54_H S55_H S56_M S57_H S58_H S59_H S60_H S61_H S62_H S63_H S64_H S65_H S66_H S67_H S68_M S69_H S70_H S71_H" id="S33_O_S71_H"/>
	<route edges="S33_O_0 S33_O_1 S33_O_2 S33_O_3 S33_O_4 S33_M S34_M S35_M S36_M S37_M S38_M S39_M S40_M S41_M S42_M S43_M S44_M S45_M S46_M S47_M S48_M S49_M S50_M S51_M S52_M S53_M S54_M S55_M S56_M S57_M S58_M S59_M S60_M S61_M S62_M S63_M S64_M S65_M S66_M S67_M S68_M S69_M S70_M S71_M" id="S33_O_S71_M"/>
	<route edges="S35_O_0 S35_O_1 S35_O_2 S35_O_3 S35_O_4 S35_M S36_M S37_F" id="S35_O_S37_F"/>
	<route edges="S35_O_0 S35_O_1 S35_O_2 S35_O_3 S35_O_4 S35_M S36_M S37_M S38_M S39_M S40_M S41_M S42_F" id="S35_O_S42_F"/>
	<route edges="S35_O_0 S35_O_1 S35_O_2 S35_O_3 S35_O_4 S35_M S36_M S37_M S38_M S39_M S40_M S41_M S42_M S43_M S44_M S45_M S46_M S47_F" id="S35_O_S47_F"/>
	<route edges="S35_O_0 S35_O_1 S35_O_2 S35_O_3 S35_O_4 S35_M S36_M S37_M S38_M S39_M S40_M S41_M S42_M S43_M S44_M S45_M S46_M S47_M S48_M S49_M S50_M S51_M S52_F" id="S35_O_S52_F"/>
	<route edges="S35_O_0 S35_O_1 S35_O_2 S35_O_3 S35_O_4 S35_M S36_M S37_M S38_M S39_M S40_M S41_M S42_M S43_M S44_M S45_M S46_M S47_M S48_M S49_M S50_M S51_M S52_M S53_M S54_F" id="S35_O_S54_F"/>
	<route edges="S35_O_0 S35_O_1 S35_O_2 S35_O_3 S35_O_4 S35_M S36_M S37_M S38_M S39_M S40_M S41_M S42_M S43_M S44_M S45_M S46_M S47_M S48_M S49_M S50_M S51_M S52_M S53_M S54_M S55_F" id="S35_O_S55_F"/>
	<route edges="S35_O_0 S35_O_1 S35_O_2 S35_O_3 S35_O_4 S35_M S36_M S37_M S38_M S39_M S40_M S41_M S42_M S43_M S44_M S45_M S46_M S47_M S48_M S49_M S50_M S51_M S52_M S53_M S54_M S55_M S56_M S57_M S58_M S59_M S60_M S61_M S62_F" id="S35_O_S62_F"/>
	<route edges="S35_O_0 S35_O_1 S35_O_2 S35_O_3 S35_O_4 S35_M S36_M S37_M S38_M S39_M S40_M S41_M S42_M S43_M S44_M S45_M S46_M S47_M S48_M S49_M S50_M S51_M S52_M S53_M S54_M S55_M S56_M S57_M S58_M S59_M S60_M S61_M S62_M S63_F_0 S64_O_6 S63_F_1" id="S35_O_S63_F"/>
	<route edges="S35_O_0 S35_O_1 S35_O_2 S35_O_3 S35_O_4 S35_M S36_M S37_M S38_M S39_M S40_M S41_M S42_M S43_M S44_M S45_M S46_M S47_M S48_M S49_M S50_M S51_M S52_M S53_M S54_M S55_M S56_M S57_M S58_M S59_M S60_M S61_M S62_M S63_M S64_M S65_M S66_M S67_M S68_M S69_M S70_M S71_F" id="S35_O_S71_F"/>
	<route edges="S35_O_0 S35_O_1 S35_O_2 S35_O_3 S35_O_4 S35_M S36_M S37_M S38_M S39_H S40_H S41_H S42_H S43_M S44_H S45_H S46_H S47_H S48_H S49_H S50_H S51_H S52_H S53_H S54_H S55_H S56_M S57_H S58_H S59_H S60_H S61_H S62_H S63_H S64_H S65_H S66_H S67_H S68_M S69_H S70_H S71_H" id="S35_O_S71_H"/>
	<route edges="S35_O_0 S35_O_1 S35_O_2 S35_O_3 S35_O_4 S35_M S36_M S37_M S38_M S39_M S40_M S41_M S42_M S43_M S44_M S45_M S46_M S47_M S48_M S49_M S50_M S51_M S52_M S53_M S54_M S55_M S56_M S57_M S58_M S59_M S60_M S61_M S62_M S63_M S64_M S65_M S66_M S67_M S68_M S69_M S70_M S71_M" id="S35_O_S71_M"/>
	<route edges="S40_O_0 S40_O_1 S40_O_2 S40_O_3 S40_O_4 S40_M S41_M S42_F" id="S40_O_S42_F"/>
	<route edges="S40_O_0 S40_O_1 S40_O_2 S40_O_3 S40_O_4 S40_M S41_M S42_M S43_M S44_M S45_M S46_M S47_F" id="S40_O_S47_F"/>
	<route edges="S40_O_0 S40_O_1 S40_O_2 S40_O_3 S40_O_4 S40_M S41_M S42_M S43_M S44_M S45_M S46_M S47_M S48_M S49_M S50_M S51_M S52_F" id="S40_O_S52_F"/>
	<route edges="S40_O_0 S40_O_1 S40_O_2 S40_O_3 S40_O_4 S40_M S41_M S42_M S43_M S44_M S45_M S46_M S47_M S48_M S49_M S50_M S51_M S52_M S53_M S54_F" id="S40_O_S54_F"/>
	<route edges="S40_O_0 S40_O_1 S40_O_2 S40_O_3 S40_O_4 S40_M S41_M S42_M S43_M S44_M S45_M S46_M S47_M S48_M S49_M S50_M S51_M S52_M S53_M S54_M S55_F" id="S40_O_S55_F"/>
	<route edges="S40_O_0 S40_O_1 S40_O_2 S40_O_3 S40_O_4 S40_M S41_M S42_M S43_M S44_M S45_M S46_M S47_M S48_M S49_M S50_M S51_M S52_M S53_M S54_M S55_M S56_M S57_M S58_M S59_M S60_M S61_M S62_F" id="S40_O_S62_F"/>
	<route edges="S40_O_0 S40_O_1 S40_O_2 S40_O_3 S40_O_4 S40_M S41_M S42_M S43_M S44_M S45_M S46_M S47_M S48_M S49_M S50_M S51_M S52_M S53_M S54_M S55_M S56_M S57_M S58_M S59_M S60_M S61_M S62_M S63_F_0 S64_O_6 S63_F_1" id="S40_O_S63_F"/>
	<route edges="S40_O_0 S40_O_1 S40_O_2 S40_O_3 S40_O_4 S40_M S41_M S42_M S43_M S44_M S45_M S46_M S47_M S48_M S49_M S50_M S51_M S52_M S53_M S54_M S55_M S56_M S57_M S58_M S59_M S60_M S61_M S62_M S63_M S64_M S65_M S66_M S67_M S68_M S69_M S70_M S71_F" id="S40_O_S71_F"/>
	<route edges="S40_O_0 S40_O_1 S40_O_2 S40_O_3 S40_O_4 S40_M S41_M S42_M S43_M S44_H S45_H S46_H S47_H S48_H S49_H S50_H S51_H S52_H S53_H S54_H S55_H S56_M S57_H S58_H S59_H S60_H S61_H S62_H S63_H S64_H S65_H S66_H S67_H S68_M S69_H S70_H S71_H" id="S40_O_S71_H"/>
	<route edges="S40_O_0 S40_O_1 S40_O_2 S40_O_3 S40_O_4 S40_M S41_M S42_M S43_M S44_M S45_M S46_M S47_M S48_M S49_M S50_M S51_M S52_M S53_M S54_M S55_M S56_M S57_M S58_M S59_M S60_M S61_M S62_M S63_M S64_M S65_M S66_M S67_M S68_M S69_M S70_M S71_M" id="S40_O_S71_M"/>
	<route edges="S45_O_0 S45_O_1 S45_O_2 S45_O_3 S45_O_4 S45_M S46_M S47_F" id="S45_O_S47_F"/>
	<route edges="S45_O_0 S45_O_1 S45_O_2 S45_O_3 S45_O_4 S45_M S46_M S47_M S48_M S49_M S50_M S51_M S52_F" id="S45_O_S52_F"/>
	<route edges="S45_O_0 S45_O_1 S45_O_2 S45_O_3 S45_O_4 S45_M S46_M S47_M S48_M S49_M S50_M S51_M S52_M S53_M S54_F" id="S45_O_S54_F"/>
	<route edges="S45_O_0 S45_O_1 S45_O_2 S45_O_3 S45_O_4 S45_M S46_M S47_M S48_M S49_M S50_M S51_M S52_M S53_M S54_M S55_F" id="S45_O_S55_F"/>
	<route edges="S45_O_0 S45_O_1 S45_O_2 S45_O_3 S45_O_4 S45_M S46_M S47_M S48_M S49_M S50_M S51_M S52_M S53_M S54_M S55_M S56_M S57_M S58_M S59_M S60_M S61_M S62_F" id="S45_O_S62_F"/>
	<route edges="S45_O_0 S45_O_1 S45_O_2 S45_O_3 S45_O_4 S45_M S46_M S47_M S48_M S49_M S50_M S51_M S52_M S53_M S54_M S55_M S56_M S57_M S58_M S59_M S60_M S61_M S62_M S63_F_0 S64_O_6 S63_F_1" id="S45_O_S63_F"/>
	<route edges="S45_O_0 S45_O_1 S45_O_2 S45_O_3 S45_O_4 S45_M S46_M S47_M S48_M S49_M S50_M S51_M S52_M S53_M S54_M S55_M S56_M S57_M S58_M S59_M S60_M S61_M S62_M S63_M S64_M S65_M S66_M S67_M S68_M S69_M S70_M S71_F" id="S45_O_S71_F"/>
	<route edges="S45_O_0 S45_O_1 S45_O_2 S45_O_3 S45_O_4 S45_M S46_M S47_M S48_M S49_M S50_M S51_M S52_M S53_M S54_M S55_M S56_M S57_H S58_H S59_H S60_H S61_H S62_H S63_H S64_H S65_H S66_H S67_H S68_M S69_H S70_H S71_H" id="S45_O_S71_H"/>
	<route edges="S45_O_0 S45_O_1 S45_O_2 S45_O_3 S45_O_4 S45_M S46_M S47_M S48_M S49_M S50_M S51_M S52_M S53_M S54_M S55_M S56_M S57_M S58_M S59_M S60_M S61_M S62_M S63_M S64_M S65_M S66_M S67_M S68_M S69_M S70_M S71_M" id="S45_O_S71_M"/>
	<route edges="S48_O_0 S48_O_1 S48_O_2 S48_M S49_M S50_M S51_M S52_F" id="S48_O_S52_F"/>
	<route edges="S48_O_0 S48_O_1 S48_O_2 S48_M S49_M S50_M S51_M S52_M S53_M S54_F" id="S48_O_S54_F"/>
	<route edges="S48_O_0 S48_O_1 S48_O_2 S48_M S49_M S50_M S51_M S52_M S53_M S54_M S55_F" id="S48_O_S55_F"/>
	<route edges="S48_O_0 S48_O_1 S48_O_2 S48_M S49_M S50_M S51_M S52_M S53_M S54_M S55_M S56_M S57_M S58_M S59_M S60_M S61_M S62_F" id="S48_O_S62_F"/>
	<route edges="S48_O_0 S48_O_1 S48_O_2 S48_M S49_M S50_M S51_M S52_M S53_M S54_M S55_M S56_M S57_M S58_M S59_M S60_M S61_M S62_M S63_F_0 S64_O_6 S63_F_1" id="S48_O_S63_F"/>
	<route edges="S48_O_0 S48_O_1 S48_O_2 S48_M S49_M S50_M S51_M S52_M S53_M S54_M S55_M S56_M S57_M S58_M S59_M S60_M S61_M S62_M S63_M S64_M S65_M S66_M S67_M S68_M S69_M S70_M S71_F" id="S48_O_S71_F"/>
	<route edges="S48_O_0 S48_O_1 S48_O_2 S48_M S49_M S50_M S51_M S52_M S53_M S54_M S55_M S56_M S57_H S58_H S59_H S60_H S61_H S62_H S63_H S64_H S65_H S66_H S67_H S68_M S69_H S70_H S71_H" id="S48_O_S71_H"/>
	<route edges="S48_O_0 S48_O_1 S48_O_2 S48_M S49_M S50_M S51_M S52_M S53_M S54_M S55_M S56_M S57_M S58_M S59_M S60_M S61_M S62_M S63_M S64_M S65_M S66_M S67_M S68_M S69_M S70_M S71_M" id="S48_O_S71_M"/>
	<route edges="S50_O_0 S50_O_1 S50_O_2 S50_O_3 S50_O_4 S50_M S51_M S52_F" id="S50_O_S52_F"/>
	<route edges="S50_O_0 S50_O_1 S50_O_2 S50_O_3 S50_O_4 S50_M S51_M S52_M S53_M S54_F" id="S50_O_S54_F"/>
	<route edges="S50_O_0 S50_O_1 S50_O_2 S50_O_3 S50_O_4 S50_M S51_M S52_M S53_M S54_M S55_F" id="S50_O_S55_F"/>
	<route edges="S50_O_0 S50_O_1 S50_O_2 S50_O_3 S50_O_4 S50_M S51_M S52_M S53_M S54_M S55_M S56_M S57_M S58_M S59_M S60_M S61_M S62_F" id="S50_O_S62_F"/>
	<route edges="S50_O_0 S50_O_1 S50_O_2 S50_O_3 S50_O_4 S50_M S51_M S52_M S53_M S54_M S55_M S56_M S57_M S58_M S59_M S60_M S61_M S62_M S63_F_0 S64_O_6 S63_F_1" id="S50_O_S63_F"/>
	<route edges="S50_O_0 S50_O_1 S50_O_2 S50_O_3 S50_O_4 S50_M S51_M S52_M S53_M S54_M S55_M S56_M S57_M S58_M S59_M S60_M S61_M S62_M S63_M S64_M S65_M S66_M S67_M S68_M S69_M S70_M S71_F" id="S50_O_S71_F"/>
	<route edges="S50_O_0 S50_O_1 S50_O_2 S50_O_3 S50_O_4 S50_M S51_M S52_M S53_M S54_M S55_M S56_M S57_H S58_H S59_H S60_H S61_H S62_H S63_H S64_H S65_H S66_H S67_H S68_M S69_H S70_H S71_H" id="S50_O_S71_H"/>
	<route edges="S50_O_0 S50_O_1 S50_O_2 S50_O_3 S50_O_4 S50_M S51_M S52_M S53_M S54_M S55_M S56_M S57_M S58_M S59_M S60_M S61_M S62_M S63_M S64_M S65_M S66_M S67_M S68_M S69_M S70_M S71_M" id="S50_O_S71_M"/>
	<route edges="S53_O_0 S53_O_1 S53_O_2 S53_O_3 S53_O_4 S53_O_5 S53_M S54_M S55_M S56_M S57_M S58_M S59_M S60_M S61_M S62_F" id="S53_O_S62_F"/>
	<route edges="S53_O_0 S53_O_1 S53_O_2 S53_O_3 S53_O_4 S53_O_5 S53_M S54_M S55_M S56_M S57_M S58_M S59_M S60_M S61_M S62_M S63_F_0 S64_O_6 S63_F_1" id="S53_O_S63_F"/>
	<route edges="S53_O_0 S53_O_1 S53_O_2 S53_O_3 S53_O_4 S53_O_5 S53_M S54_M S55_M S56_M S57_M S58_M S59_M S60_M S61_M S62_M S63_M S64_M S65_M S66_M S67_M S68_M S69_M S70_M S71_F" id="S53_O_S71_F"/>
	<route edges="S53_O_0 S53_O_1 S53_O_2 S53_O_3 S53_O_4 S53_O_5 S53_M S54_M S55_M S56_M S57_H S58_H S59_H S60_H S61_H S62_H S63_H S64_H S65_H S66_H S67_H S68_M S69_H S70_H S71_H" id="S53_O_S71_H"/>
	<route edges="S53_O_0 S53_O_1 S53_O_2 S53_O_3 S53_O_4 S53_O_5 S53_M S54_M S55_M S56_M S57_M S58_M S59_M S60_M S61_M S62_M S63_M S64_M S65_M S66_M S67_M S68_M S69_M S70_M S71_M" id="S53_O_S71_M"/>
	<route edges="S58_O_0 S58_O_1 S58_O_2 S58_O_3 S58_O_4 S58_O_5 S58_M S59_M S60_M S61_M S62_F" id="S58_O_S62_F"/>
	<route edges="S58_O_0 S58_O_1 S58_O_2 S58_O_3 S58_O_4 S58_O_5 S58_M S59_M S60_M S61_M S62_M S63_F_0 S64_O_6 S63_F_1" id="S58_O_S63_F"/>
	<route edges="S58_O_0 S58_O_1 S58_O_2 S58_O_3 S58_O_4 S58_O_5 S58_M S59_M S60_M S61_M S62_M S63_M S64_M S65_M S66_M S67_M S68_M S69_M S70_M S71_F" id="S58_O_S71_F"/>
	<route edges="S58_O_0 S58_O_1 S58_O_2 S58_O_3 S58_O_4 S58_O_5 S58_M S59_M S60_M S61_M S62_M S63_M S64_M S65_M S66_M S67_M S68_M S69_H S70_H S71_H" id="S58_O_S71_H"/>
	<route edges="S58_O_0 S58_O_1 S58_O_2 S58_O_3 S58_O_4 S58_O_5 S58_M S59_M S60_M S61_M S62_M S63_M S64_M S65_M S66_M S67_M S68_M S69_M S70_M S71_M" id="S58_O_S71_M"/>
	<route edges="S59_O_0 S59_O_1 S59_O_2 S59_O_3 S59_O_4 S59_M S60_M S61_M S62_F" id="S59_O_S62_F"/>
	<route edges="S59_O_0 S59_O_1 S59_O_2 S59_O_3 S59_O_4 S59_M S60_M S61_M S62_M S63_F_0 S64_O_6 S63_F_1" id="S59_O_S63_F"/>
	<route edges="S59_O_0 S59_O_1 S59_O_2 S59_O_3 S59_O_4 S59_M S60_M S61_M S62_M S63_M S64_M S65_M S66_M S67_M S68_M S69_M S70_M S71_F" id="S59_O_S71_F"/>
	<route edges="S59_O_0 S59_O_1 S59_O_2 S59_O_3 S59_O_4 S59_M S60_M S61_M S62_M S63_M S64_M S65_M S66_M S67_M S68_M S69_H S70_H S71_H" id="S59_O_S71_H"/>
	<route edges="S59_O_0 S59_O_1 S59_O_2 S59_O_3 S59_O_4 S59_M S60_M S61_M S62_M S63_M S64_M S65_M S66_M S67_M S68_M S69_M S70_M S71_M" id="S59_O_S71_M"/>
	<route edges="S64_O_0 S64_O_1 S64_O_2 S64_O_3 S64_O_4 S64_O_5 S64_O_6 S64_O_7 S64_M S65_M S66_M S67_M S68_M S69_M S70_M S71_F" id="S64_O_S71_F"/>
	<route edges="S64_O_0 S64_O_1 S64_O_2 S64_O_3 S64_O_4 S64_O_5 S64_O_6 S64_O_7 S64_M S65_M S66_M S67_M S68_M S69_H S70_H S71_H" id="S64_O_S71_H"/>
	<route edges="S64_O_0 S64_O_1 S64_O_2 S64_O_3 S64_O_4 S64_O_5 S64_O_6 S64_O_7 S64_M S65_M S66_M S67_M S68_M S69_M S70_M S71_M" id="S64_O_S71_M"/>
	<route edges="S66_O_0 S66_O_1 S66_O_2 S66_M S67_M S68_M S69_M S70_M S71_F" id="S66_O_S71_F"/>
	<route edges="S66_O_0 S66_O_1 S66_O_2 S66_M S67_M S68_M S69_H S70_H S71_H" id="S66_O_S71_H"/>
	<route edges="S66_O_0 S66_O_1 S66_O_2 S66_M S67_M S68_M S69_M S70_M S71_M" id="S66_O_S71_M"/>
</routes>
