<?xml version="1.0" encoding="UTF-8"?>

<routes>
	<flow begin="0" departLane="random" departPos="random_free" departSpeed="18.53" end="1800" id="flow_S25_H_S42_F_hov_0" route="S25_H_S42_F" type="hov" vehsPerHour="8"/>
	<flow begin="0" departLane="random" departPos="random_free" departSpeed="18.53" end="1800" id="flow_S25_H_S47_F_hov_0" route="S25_H_S47_F" type="hov" vehsPerHour="15"/>
	<flow begin="0" departLane="random" departPos="random_free" departSpeed="18.53" end="1800" id="flow_S25_H_S52_F_hov_0" route="S25_H_S52_F" type="hov" vehsPerHour="20"/>
	<flow begin="0" departLane="random" departPos="random_free" departSpeed="18.53" end="1800" id="flow_S25_H_S54_F_hov_0" route="S25_H_S54_F" type="hov" vehsPerHour="4"/>
	<flow begin="0" departLane="random" departPos="random_free" departSpeed="18.53" end="1800" id="flow_S25_H_S55_F_hov_0" route="S25_H_S55_F" type="hov" vehsPerHour="10"/>
	<flow begin="0" departLane="random" departPos="random_free" departSpeed="18.53" end="1800" id="flow_S25_H_S62_F_hov_0" route="S25_H_S62_F" type="hov" vehsPerHour="81"/>
	<flow begin="0" departLane="random" departPos="random_free" departSpeed="18.53" end="1800" id="flow_S25_H_S63_F_hov_0" route="S25_H_S63_F" type="hov" vehsPerHour="11"/>
	<flow begin="0" departLane="random" departPos="random_free" departSpeed="18.53" end="1800" id="flow_S25_H_S71_F_hov_0" route="S25_H_S71_F" type="hov" vehsPerHour="91"/>
	<flow arrivalLane="0" arrivalPos="100" arrivalSpeed="25.7" begin="0" departLane="random" departPos="random_free" departSpeed="18.53" end="1800" id="flow_S25_H_S71_H_hov_0" route="S25_H_S71_H" type="hov" vehsPerHour="645"/>
	<flow begin="0" departLane="best" departPos="random_free" departSpeed="30.04" end="1800" id="flow_S25_M_S28_F_car_0" route="S25_M_S28_F" type="car" vehsPerHour="432"/>
	<flow begin="0" departLane="best" departPos="random_free" departSpeed="max" end="1800" id="flow_S25_M_S28_F_lightTruck_0" route="S25_M_S28_F" type="lightTruck" vehsPerHour="4"/>
	<flow begin="0" departLane="best" departPos="random_free" departSpeed="max" end="1800" id="flow_S25_M_S28_F_heavyTruck_0" route="S25_M_S28_F" type="heavyTruck" vehsPerHour="9"/>
	<flow begin="0" departLane="best" departPos="random_free" departSpeed="30.04" end="1800" id="flow_S25_M_S29_F_car_0" route="S25_M_S29_F" type="car" vehsPerHour="140"/>
	<flow begin="0" departLane="best" departPos="random_free" departSpeed="max" end="1800" id="flow_S25_M_S29_F_lightTruck_0" route="S25_M_S29_F" type="lightTruck" vehsPerHour="1"/>
	<flow begin="0" departLane="best" departPos="random_free" departSpeed="max" end="1800" id="flow_S25_M_S29_F_heavyTruck_0" route="S25_M_S29_F" type="heavyTruck" vehsPerHour="3"/>
	<flow begin="0" departLane="best" departPos="random_free" departSpeed="30.04" end="1800" id="flow_S25_M_S32_F_car_0" route="S25_M_S32_F" type="car" vehsPerHour="270"/>
	<flow begin="0" departLane="best" departPos="random_free" departSpeed="max" end="1800" id="flow_S25_M_S32_F_lightTruck_0" route="S25_M_S32_F" type="lightTruck" vehsPerHour="3"/>
	<flow begin="0" departLane="best" departPos="random_free" departSpeed="max" end="1800" id="flow_S25_M_S32_F_heavyTruck_0" route="S25_M_S32_F" type="heavyTruck" vehsPerHour="6"/>
	<flow begin="0" departLane="best" departPos="random_free" departSpeed="30.04" end="1800" id="flow_S25_M_S37_F_car_0" route="S25_M_S37_F" type="car" vehsPerHour="494"/>
	<flow begin="0" departLane="best" departPos="random_free" departSpeed="max" end="1800" id="flow_S25_M_S37_F_lightTruck_0" route="S25_M_S37_F" type="lightTruck" vehsPerHour="5"/>
	<flow begin="0" departLane="best" departPos="random_free" departSpeed="max" end="1800" id="flow_S25_M_S37_F_heavyTruck_0" route="S25_M_S37_F" type="heavyTruck" vehsPerHour="10"/>
	<flow begin="0" departLane="best" departPos="random_free" departSpeed="30.04" end="1800" id="flow_S25_M_S42_F_car_0" route="S25_M_S42_F" type="car" vehsPerHour="500"/>
	<flow begin="0" departLane="best" departPos="random_free" departSpeed="max" end="1800" id="flow_S25_M_S42_F_lightTruck_0" route="S25_M_S42_F" type="lightTruck" vehsPerHour="5"/>
	<flow begin="0" departLane="best" departPos="random_free" departSpeed="max" end="1800" id="flow_S25_M_S42_F_heavyTruck_0" route="S25_M_S42_F" type="heavyTruck" vehsPerHour="10"/>
	<flow begin="0" departLane="best" departPos="random_free" departSpeed="30.04" end="1800" id="flow_S25_M_S47_F_car_0" route="S25_M_S47_F" type="car" vehsPerHour="297"/>
	<flow begin="0" departLane="best" departPos="random_free" departSpeed="max" end="1800" id="flow_S25_M_S47_F_lightTruck_0" route="S25_M_S47_F" type="lightTruck" vehsPerHour="3"/>
	<flow begin="0" departLane="best" departPos="random_free" departSpeed="max" end="1800" id="flow_S25_M_S47_F_heavyTruck_0" route="S25_M_S47_F" type="heavyTruck" vehsPerHour="6"/>
	<flow begin="0" departLane="best" departPos="random_free" departSpeed="30.04" end="1800" id="flow_S25_M_S52_F_car_0" route="S25_M_S52_F" type="car" vehsPerHour="371"/>
	<flow begin="0" departLane="best" departPos="random_free" departSpeed="max" end="1800" id="flow_S25_M_S52_F_lightTruck_0" route="S25_M_S52_F" type="lightTruck" vehsPerHour="4"/>
	<flow begin="0" departLane="best" departPos="random_free" departSpeed="max" end="1800" id="flow_S25_M_S52_F_heavyTruck_0" route="S25_M_S52_F" type="heavyTruck" vehsPerHour="8"/>
	<flow begin="0" departLane="best" departPos="random_free" departSpeed="30.04" end="1800" id="flow_S25_M_S54_F_car_0" route="S25_M_S54_F" type="car" vehsPerHour="68"/>
	<flow begin="0" departLane="best" departPos="random_free" departSpeed="max" end="1800" id="flow_S25_M_S54_F_lightTruck_0" route="S25_M_S54_F" type="lightTruck" vehsPerHour="1"/>
	<flow begin="0" departLane="best" departPos="random_free" departSpeed="max" end="1800" id="flow_S25_M_S54_F_heavyTruck_0" route="S25_M_S54_F" type="heavyTruck" vehsPerHour="1"/>
	<flow begin="0" departLane="best" departPos="random_free" departSpeed="30.04" end="1800" id="flow_S25_M_S55_F_car_0" route="S25_M_S55_F" type="car" vehsPerHour="183"/>
	<flow begin="0" departLane="best" departPos="random_free" departSpeed="max" end="1800" id="flow_S25_M_S55_F_lightTruck_0" route="S25_M_S55_F" type="lightTruck" vehsPerHour="2"/>
	<flow begin="0" departLane="best" departPos="random_free" departSpeed="max" end="1800" id="flow_S25_M_S55_F_heavyTruck_0" route="S25_M_S55_F" type="heavyTruck" vehsPerHour="4"/>
	<flow begin="0" departLane="best" departPos="random_free" departSpeed="30.04" end="1800" id="flow_S25_M_S62_F_car_0" route="S25_M_S62_F" type="car" vehsPerHour="1076"/>
	<flow begin="0" departLane="best" departPos="random_free" departSpeed="max" end="1800" id="flow_S25_M_S62_F_lightTruck_0" route="S25_M_S62_F" type="lightTruck" vehsPerHour="11"/>
	<flow begin="0" departLane="best" departPos="random_free" departSpeed="max" end="1800" id="flow_S25_M_S62_F_heavyTruck_0" route="S25_M_S62_F" type="heavyTruck" vehsPerHour="22"/>
	<flow begin="0" departLane="best" departPos="random_free" departSpeed="30.04" end="1800" id="flow_S25_M_S71_F_car_0" route="S25_M_S71_F" type="car" vehsPerHour="39"/>
	<flow begin="0" departLane="best" departPos="random_free" departSpeed="max" end="1800" id="flow_S25_M_S71_F_heavyTruck_0" route="S25_M_S71_F" type="heavyTruck" vehsPerHour="1"/>
	<flow arrivalPos="540" arrivalSpeed="26.96" begin="0" departLane="best" departPos="random_free" departSpeed="30.04" end="1800" id="flow_S25_M_S71_M_car_0" route="S25_M_S71_M" type="car" vehsPerHour="3494"/>
	<flow arrivalPos="540" arrivalSpeed="26.96" begin="0" departLane="best" departPos="random_free" departSpeed="max" end="1800" id="flow_S25_M_S71_M_lightTruck_0" route="S25_M_S71_M" type="lightTruck" vehsPerHour="36"/>
	<flow arrivalPos="540" arrivalSpeed="26.96" begin="0" departLane="best" departPos="random_free" departSpeed="max" end="1800" id="flow_S25_M_S71_M_heavyTruck_0" route="S25_M_S71_M" type="heavyTruck" vehsPerHour="72"/>
	<flow begin="0" departLane="random" departPos="random_free" departSpeed="7" end="1800" id="flow_S26_O_S28_F_car_0" route="S26_O_S28_F" type="car" vehsPerHour="210"/>
	<flow begin="0" departLane="allowed" departPos="random_free" departSpeed="7" end="1800" id="flow_S26_O_S28_F_lightTruck_0" route="S26_O_S28_F" type="lightTruck" vehsPerHour="7"/>
	<flow begin="0" departLane="random" departPos="random_free" departSpeed="7" end="1800" id="flow_S26_O_S29_F_car_0" route="S26_O_S29_F" type="car" vehsPerHour="105"/>
	<flow begin="0" departLane="allowed" departPos="random_free" departSpeed="7" end="1800" id="flow_S26_O_S29_F_lightTruck_0" route="S26_O_S29_F" type="lightTruck" vehsPerHour="3"/>
	<flow begin="0" departLane="random" departPos="random_free" departSpeed="7" end="1800" id="flow_S26_O_S32_F_car_0" route="S26_O_S32_F" type="car" vehsPerHour="4"/>
	<flow begin="0" departLane="random" departPos="random_free" departSpeed="7" end="1800" id="flow_S26_O_S37_F_car_0" route="S26_O_S37_F" type="car" vehsPerHour="8"/>
	<flow begin="0" departLane="random" departPos="random_free" departSpeed="7" end="1800" id="flow_S26_O_S42_F_car_0" route="S26_O_S42_F" type="car" vehsPerHour="8"/>
	<flow begin="0" departLane="random" departPos="random_free" departSpeed="7" end="1800" id="flow_S26_O_S47_F_car_0" route="S26_O_S47_F" type="car" vehsPerHour="5"/>
	<flow begin="0" departLane="random" departPos="random_free" departSpeed="7" end="1800" id="flow_S26_O_S52_F_car_0" route="S26_O_S52_F" type="car" vehsPerHour="6"/>
	<flow begin="0" departLane="random" departPos="random_free" departSpeed="7" end="1800" id="flow_S26_O_S54_F_car_0" route="S26_O_S54_F" type="car" vehsPerHour="1"/>
	<flow begin="0" departLane="random" departPos="random_free" departSpeed="7" end="1800" id="flow_S26_O_S55_F_car_0" route="S26_O_S55_F" type="car" vehsPerHour="3"/>
	<flow begin="0" departLane="random" departPos="random_free" departSpeed="7" end="1800" id="flow_S26_O_S62_F_car_0" route="S26_O_S62_F" type="car" vehsPerHour="17"/>
	<flow begin="0" departLane="allowed" departPos="random_free" departSpeed="7" end="1800" id="flow_S26_O_S62_F_lightTruck_0" route="S26_O_S62_F" type="lightTruck" vehsPerHour="1"/>
	<flow begin="0" departLane="random" departPos="random_free" departSpeed="7" end="1800" id="flow_S26_O_S71_F_car_0" route="S26_O_S71_F" type="car" vehsPerHour="1"/>
	<flow arrivalPos="540" arrivalSpeed="26.96" begin="0" departLane="random" departPos="random_free" departSpeed="7" end="1800" id="flow_S26_O_S71_M_car_0" route="S26_O_S71_M" type="car" vehsPerHour="52"/>
	<flow arrivalPos="540" arrivalSpeed="26.96" begin="0" departLane="allowed" departPos="random_free" departSpeed="7" end="1800" id="flow_S26_O_S71_M_lightTruck_0" route="S26_O_S71_M" type="lightTruck" vehsPerHour="2"/>
	<flow arrivalLane="0" arrivalPos="100" arrivalSpeed="25.7" begin="0" departLane="random" departPos="random_free" departSpeed="7" end="1800" id="flow_S26_O_S71_H_hov_0" route="S26_O_S71_H" type="hov" vehsPerHour="32"/>
	<flow begin="0" departLane="random" departPos="random_free" departSpeed="7" end="1800" id="flow_S30_O_S32_F_car_0" route="S30_O_S32_F" type="car" vehsPerHour="114"/>
	<flow begin="0" departLane="allowed" departPos="random_free" departSpeed="7" end="1800" id="flow_S30_O_S32_F_lightTruck_0" route="S30_O_S32_F" type="lightTruck" vehsPerHour="4"/>
	<flow begin="0" departLane="random" departPos="random_free" departSpeed="7" end="1800" id="flow_S30_O_S37_F_car_0" route="S30_O_S37_F" type="car" vehsPerHour="69"/>
	<flow begin="0" departLane="allowed" departPos="random_free" departSpeed="7" end="1800" id="flow_S30_O_S37_F_lightTruck_0" route="S30_O_S37_F" type="lightTruck" vehsPerHour="2"/>
	<flow begin="0" departLane="random" departPos="random_free" departSpeed="7" end="1800" id="flow_S30_O_S42_F_car_0" route="S30_O_S42_F" type="car" vehsPerHour="9"/>
	<flow begin="0" departLane="random" departPos="random_free" departSpeed="7" end="1800" id="flow_S30_O_S47_F_car_0" route="S30_O_S47_F" type="car" vehsPerHour="5"/>
	<flow begin="0" departLane="random" departPos="random_free" departSpeed="7" end="1800" id="flow_S30_O_S52_F_car_0" route="S30_O_S52_F" type="car" vehsPerHour="7"/>
	<flow begin="0" departLane="random" departPos="random_free" departSpeed="7" end="1800" id="flow_S30_O_S54_F_car_0" route="S30_O_S54_F" type="car" vehsPerHour="1"/>
	<flow begin="0" departLane="random" departPos="random_free" departSpeed="7" end="1800" id="flow_S30_O_S55_F_car_0" route="S30_O_S55_F" type="car" vehsPerHour="3"/>
	<flow begin="0" departLane="random" departPos="random_free" departSpeed="7" end="1800" id="flow_S30_O_S62_F_car_0" route="S30_O_S62_F" type="car" vehsPerHour="19"/>
	<flow begin="0" departLane="allowed" departPos="random_free" departSpeed="7" end="1800" id="flow_S30_O_S62_F_lightTruck_0" route="S30_O_S62_F" type="lightTruck" vehsPerHour="1"/>
	<flow begin="0" departLane="random" departPos="random_free" departSpeed="7" end="1800" id="flow_S30_O_S71_F_car_0" route="S30_O_S71_F" type="car" vehsPerHour="1"/>
	<flow arrivalPos="540" arrivalSpeed="26.96" begin="0" departLane="random" departPos="random_free" departSpeed="7" end="1800" id="flow_S30_O_S71_M_car_0" route="S30_O_S71_M" type="car" vehsPerHour="57"/>
	<flow arrivalPos="540" arrivalSpeed="26.96" begin="0" departLane="allowed" departPos="random_free" departSpeed="7" end="1800" id="flow_S30_O_S71_M_lightTruck_0" route="S30_O_S71_M" type="lightTruck" vehsPerHour="2"/>
	<flow arrivalLane="0" arrivalPos="100" arrivalSpeed="25.7" begin="0" departLane="random" departPos="random_free" departSpeed="7" end="1800" id="flow_S30_O_S71_H_hov_0" route="S30_O_S71_H" type="hov" vehsPerHour="22"/>
	<flow begin="0" departLane="random" departPos="random_free" departSpeed="7" end="1800" id="flow_S33_O_S37_F_car_0" route="S33_O_S37_F" type="car" vehsPerHour="59"/>
	<flow begin="0" departLane="allowed" departPos="random_free" departSpeed="7" end="1800" id="flow_S33_O_S37_F_lightTruck_0" route="S33_O_S37_F" type="lightTruck" vehsPerHour="2"/>
	<flow begin="0" departLane="random" departPos="random_free" departSpeed="7" end="1800" id="flow_S33_O_S42_F_car_0" route="S33_O_S42_F" type="car" vehsPerHour="12"/>
	<flow begin="0" departLane="random" departPos="random_free" departSpeed="7" end="1800" id="flow_S33_O_S47_F_car_0" route="S33_O_S47_F" type="car" vehsPerHour="7"/>
	<flow begin="0" departLane="random" departPos="random_free" departSpeed="7" end="1800" id="flow_S33_O_S52_F_car_0" route="S33_O_S52_F" type="car" vehsPerHour="9"/>
	<flow begin="0" departLane="random" departPos="random_free" departSpeed="7" end="1800" id="flow_S33_O_S54_F_car_0" route="S33_O_S54_F" type="car" vehsPerHour="2"/>
	<flow begin="0" departLane="random" departPos="random_free" departSpeed="7" end="1800" id="flow_S33_O_S55_F_car_0" route="S33_O_S55_F" type="car" vehsPerHour="4"/>
	<flow begin="0" departLane="random" departPos="random_free" departSpeed="7" end="1800" id="flow_S33_O_S62_F_car_0" route="S33_O_S62_F" type="car" vehsPerHour="25"/>
	<flow begin="0" departLane="allowed" departPos="random_free" departSpeed="7" end="1800" id="flow_S33_O_S62_F_lightTruck_0" route="S33_O_S62_F" type="lightTruck" vehsPerHour="1"/>
	<flow begin="0" departLane="random" departPos="random_free" departSpeed="7" end="1800" id="flow_S33_O_S71_F_car_0" route="S33_O_S71_F" type="car" vehsPerHour="1"/>
	<flow arrivalPos="540" arrivalSpeed="26.96" begin="0" departLane="random" departPos="random_free" departSpeed="7" end="1800" id="flow_S33_O_S71_M_car_0" route="S33_O_S71_M" type="car" vehsPerHour="77"/>
	<flow arrivalPos="540" arrivalSpeed="26.96" begin="0" departLane="allowed" departPos="random_free" departSpeed="7" end="1800" id="flow_S33_O_S71_M_lightTruck_0" route="S33_O_S71_M" type="lightTruck" vehsPerHour="2"/>
	<flow arrivalLane="0" arrivalPos="100" arrivalSpeed="25.7" begin="0" departLane="random" departPos="random_free" departSpeed="7" end="1800" id="flow_S33_O_S71_H_hov_0" route="S33_O_S71_H" type="hov" vehsPerHour="15"/>
	<flow begin="0" departLane="random" departPos="random_free" departSpeed="7" end="1800" id="flow_S35_O_S37_F_car_0" route="S35_O_S37_F" type="car" vehsPerHour="60"/>
	<flow begin="0" departLane="allowed" departPos="random_free" departSpeed="7" end="1800" id="flow_S35_O_S37_F_lightTruck_0" route="S35_O_S37_F" type="lightTruck" vehsPerHour="2"/>
	<flow begin="0" departLane="random" departPos="random_free" departSpeed="7" end="1800" id="flow_S35_O_S42_F_car_0" route="S35_O_S42_F" type="car" vehsPerHour="12"/>
	<flow begin="0" departLane="random" departPos="random_free" departSpeed="7" end="1800" id="flow_S35_O_S47_F_car_0" route="S35_O_S47_F" type="car" vehsPerHour="7"/>
	<flow begin="0" departLane="random" departPos="random_free" departSpeed="7" end="1800" id="flow_S35_O_S52_F_car_0" route="S35_O_S52_F" type="car" vehsPerHour="9"/>
	<flow begin="0" departLane="random" departPos="random_free" departSpeed="7" end="1800" id="flow_S35_O_S54_F_car_0" route="S35_O_S54_F" type="car" vehsPerHour="2"/>
	<flow begin="0" departLane="random" departPos="random_free" departSpeed="7" end="1800" id="flow_S35_O_S55_F_car_0" route="S35_O_S55_F" type="car" vehsPerHour="5"/>
	<flow begin="0" departLane="random" departPos="random_free" departSpeed="7" end="1800" id="flow_S35_O_S62_F_car_0" route="S35_O_S62_F" type="car" vehsPerHour="26"/>
	<flow begin="0" departLane="allowed" departPos="random_free" departSpeed="7" end="1800" id="flow_S35_O_S62_F_lightTruck_0" route="S35_O_S62_F" type="lightTruck" vehsPerHour="1"/>
	<flow begin="0" departLane="random" departPos="random_free" departSpeed="7" end="1800" id="flow_S35_O_S71_F_car_0" route="S35_O_S71_F" type="car" vehsPerHour="1"/>
	<flow arrivalPos="540" arrivalSpeed="26.96" begin="0" departLane="random" departPos="random_free" departSpeed="7" end="1800" id="flow_S35_O_S71_M_car_0" route="S35_O_S71_M" type="car" vehsPerHour="79"/>
	<flow arrivalPos="540" arrivalSpeed="26.96" begin="0" departLane="allowed" departPos="random_free" departSpeed="7" end="1800" id="flow_S35_O_S71_M_lightTruck_0" route="S35_O_S71_M" type="lightTruck" vehsPerHour="2"/>
	<flow arrivalLane="0" arrivalPos="100" arrivalSpeed="25.7" begin="0" departLane="random" departPos="random_free" departSpeed="7" end="1800" id="flow_S35_O_S71_H_hov_0" route="S35_O_S71_H" type="hov" vehsPerHour="15"/>
	<flow begin="0" departLane="random" departPos="random_free" departSpeed="7" end="1800" id="flow_S40_O_S42_F_car_0" route="S40_O_S42_F" type="car" vehsPerHour="49"/>
	<flow begin="0" departLane="allowed" departPos="random_free" departSpeed="7" end="1800" id="flow_S40_O_S42_F_lightTruck_0" route="S40_O_S42_F" type="lightTruck" vehsPerHour="2"/>
	<flow begin="0" departLane="random" departPos="random_free" departSpeed="7" end="1800" id="flow_S40_O_S47_F_car_0" route="S40_O_S47_F" type="car" vehsPerHour="25"/>
	<flow begin="0" departLane="allowed" departPos="random_free" departSpeed="7" end="1800" id="flow_S40_O_S47_F_lightTruck_0" route="S40_O_S47_F" type="lightTruck" vehsPerHour="1"/>
	<flow begin="0" departLane="random" departPos="random_free" departSpeed="7" end="1800" id="flow_S40_O_S52_F_car_0" route="S40_O_S52_F" type="car" vehsPerHour="31"/>
	<flow begin="0" departLane="allowed" departPos="random_free" departSpeed="7" end="1800" id="flow_S40_O_S52_F_lightTruck_0" route="S40_O_S52_F" type="lightTruck" vehsPerHour="1"/>
	<flow begin="0" departLane="random" departPos="random_free" departSpeed="7" end="1800" id="flow_S40_O_S54_F_car_0" route="S40_O_S54_F" type="car" vehsPerHour="6"/>
	<flow begin="0" departLane="random" departPos="random_free" departSpeed="7" end="1800" id="flow_S40_O_S55_F_car_0" route="S40_O_S55_F" type="car" vehsPerHour="16"/>
	<flow begin="0" departLane="random" departPos="random_free" departSpeed="7" end="1800" id="flow_S40_O_S62_F_car_0" route="S40_O_S62_F" type="car" vehsPerHour="91"/>
	<flow begin="0" departLane="allowed" departPos="random_free" departSpeed="7" end="1800" id="flow_S40_O_S62_F_lightTruck_0" route="S40_O_S62_F" type="lightTruck" vehsPerHour="3"/>
	<flow begin="0" departLane="random" departPos="random_free" departSpeed="7" end="1800" id="flow_S40_O_S71_F_car_0" route="S40_O_S71_F" type="car" vehsPerHour="3"/>
	<flow arrivalPos="540" arrivalSpeed="26.96" begin="0" departLane="random" departPos="random_free" departSpeed="7" end="1800" id="flow_S40_O_S71_M_car_0" route="S40_O_S71_M" type="car" vehsPerHour="274"/>
	<flow arrivalPos="540" arrivalSpeed="26.96" begin="0" departLane="allowed" departPos="random_free" departSpeed="7" end="1800" id="flow_S40_O_S71_M_lightTruck_0" route="S40_O_S71_M" type="lightTruck" vehsPerHour="8"/>
	<flow arrivalLane="0" arrivalPos="100" arrivalSpeed="25.7" begin="0" departLane="random" departPos="random_free" departSpeed="7" end="1800" id="flow_S40_O_S71_H_hov_0" route="S40_O_S71_H" type="hov" vehsPerHour="12"/>
	<flow begin="0" departLane="random" departPos="random_free" departSpeed="7" end="1800" id="flow_S45_O_S47_F_car_0" route="S45_O_S47_F" type="car" vehsPerHour="35"/>
	<flow begin="0" departLane="allowed" departPos="random_free" departSpeed="7" end="1800" id="flow_S45_O_S47_F_lightTruck_0" route="S45_O_S47_F" type="lightTruck" vehsPerHour="1"/>
	<flow begin="0" departLane="random" departPos="random_free" departSpeed="7" end="1800" id="flow_S45_O_S52_F_car_0" route="S45_O_S52_F" type="car" vehsPerHour="23"/>
	<flow begin="0" departLane="allowed" departPos="random_free" departSpeed="7" end="1800" id="flow_S45_O_S52_F_lightTruck_0" route="S45_O_S52_F" type="lightTruck" vehsPerHour="1"/>
	<flow begin="0" departLane="random" departPos="random_free" departSpeed="7" end="1800" id="flow_S45_O_S54_F_car_0" route="S45_O_S54_F" type="car" vehsPerHour="4"/>
	<flow begin="0" departLane="random" departPos="random_free" departSpeed="7" end="1800" id="flow_S45_O_S55_F_car_0" route="S45_O_S55_F" type="car" vehsPerHour="12"/>
	<flow begin="0" departLane="random" departPos="random_free" departSpeed="7" end="1800" id="flow_S45_O_S62_F_car_0" route="S45_O_S62_F" type="car" vehsPerHour="68"/>
	<flow begin="0" departLane="allowed" departPos="random_free" departSpeed="7" end="1800" id="flow_S45_O_S62_F_lightTruck_0" route="S45_O_S62_F" type="lightTruck" vehsPerHour="2"/>
	<flow begin="0" departLane="random" departPos="random_free" departSpeed="7" end="1800" id="flow_S45_O_S71_F_car_0" route="S45_O_S71_F" type="car" vehsPerHour="3"/>
	<flow arrivalPos="540" arrivalSpeed="26.96" begin="0" departLane="random" departPos="random_free" departSpeed="7" end="1800" id="flow_S45_O_S71_M_car_0" route="S45_O_S71_M" type="car" vehsPerHour="204"/>
	<flow arrivalPos="540" arrivalSpeed="26.96" begin="0" departLane="allowed" departPos="random_free" departSpeed="7" end="1800" id="flow_S45_O_S71_M_lightTruck_0" route="S45_O_S71_M" type="lightTruck" vehsPerHour="6"/>
	<flow arrivalLane="0" arrivalPos="100" arrivalSpeed="25.7" begin="0" departLane="random" departPos="random_free" departSpeed="7" end="1800" id="flow_S45_O_S71_H_hov_0" route="S45_O_S71_H" type="hov" vehsPerHour="20"/>
	<flow begin="0" departLane="random" departPos="random_free" departSpeed="7" end="1800" id="flow_S48_O_S52_F_car_0" route="S48_O_S52_F" type="car" vehsPerHour="11"/>
	<flow begin="0" departLane="random" departPos="random_free" departSpeed="7" end="1800" id="flow_S48_O_S54_F_car_0" route="S48_O_S54_F" type="car" vehsPerHour="1"/>
	<flow begin="0" departLane="random" departPos="random_free" departSpeed="7" end="1800" id="flow_S48_O_S55_F_car_0" route="S48_O_S55_F" type="car" vehsPerHour="4"/>
	<flow begin="0" departLane="random" departPos="random_free" departSpeed="7" end="1800" id="flow_S48_O_S62_F_car_0" route="S48_O_S62_F" type="car" vehsPerHour="22"/>
	<flow begin="0" departLane="allowed" departPos="random_free" departSpeed="7" end="1800" id="flow_S48_O_S62_F_lightTruck_0" route="S48_O_S62_F" type="lightTruck" vehsPerHour="1"/>
	<flow begin="0" departLane="random" departPos="random_free" departSpeed="7" end="1800" id="flow_S48_O_S71_F_car_0" route="S48_O_S71_F" type="car" vehsPerHour="1"/>
	<flow arrivalPos="540" arrivalSpeed="26.96" begin="0" departLane="random" departPos="random_free" departSpeed="7" end="1800" id="flow_S48_O_S71_M_car_0" route="S48_O_S71_M" type="car" vehsPerHour="68"/>
	<flow arrivalPos="540" arrivalSpeed="26.96" begin="0" departLane="allowed" departPos="random_free" departSpeed="7" end="1800" id="flow_S48_O_S71_M_lightTruck_0" route="S48_O_S71_M" type="lightTruck" vehsPerHour="2"/>
	<flow arrivalLane="0" arrivalPos="100" arrivalSpeed="25.7" begin="0" departLane="random" departPos="random_free" departSpeed="7" end="1800" id="flow_S48_O_S71_H_hov_0" route="S48_O_S71_H" type="hov" vehsPerHour="6"/>
	<flow begin="0" departLane="random" departPos="random_free" departSpeed="7" end="1800" id="flow_S50_O_S52_F_car_0" route="S50_O_S52_F" type="car" vehsPerHour="37"/>
	<flow begin="0" departLane="allowed" departPos="random_free" departSpeed="7" end="1800" id="flow_S50_O_S52_F_lightTruck_0" route="S50_O_S52_F" type="lightTruck" vehsPerHour="1"/>
	<flow begin="0" departLane="random" departPos="random_free" departSpeed="7" end="1800" id="flow_S50_O_S54_F_car_0" route="S50_O_S54_F" type="car" vehsPerHour="5"/>
	<flow begin="0" departLane="random" departPos="random_free" departSpeed="7" end="1800" id="flow_S50_O_S55_F_car_0" route="S50_O_S55_F" type="car" vehsPerHour="14"/>
	<flow begin="0" departLane="random" departPos="random_free" departSpeed="7" end="1800" id="flow_S50_O_S62_F_car_0" route="S50_O_S62_F" type="car" vehsPerHour="78"/>
	<flow begin="0" departLane="allowed" departPos="random_free" departSpeed="7" end="1800" id="flow_S50_O_S62_F_lightTruck_0" route="S50_O_S62_F" type="lightTruck" vehsPerHour="2"/>
	<flow begin="0" departLane="random" departPos="random_free" departSpeed="7" end="1800" id="flow_S50_O_S71_F_car_0" route="S50_O_S71_F" type="car" vehsPerHour="3"/>
	<flow arrivalPos="540" arrivalSpeed="26.96" begin="0" departLane="random" departPos="random_free" departSpeed="7" end="1800" id="flow_S50_O_S71_M_car_0" route="S50_O_S71_M" type="car" vehsPerHour="233"/>
	<flow arrivalPos="540" arrivalSpeed="26.96" begin="0" departLane="allowed" departPos="random_free" departSpeed="7" end="1800" id="flow_S50_O_S71_M_lightTruck_0" route="S50_O_S71_M" type="lightTruck" vehsPerHour="7"/>
	<flow arrivalLane="0" arrivalPos="100" arrivalSpeed="25.7" begin="0" departLane="random" departPos="random_free" departSpeed="7" end="1800" id="flow_S50_O_S71_H_hov_0" route="S50_O_S71_H" type="hov" vehsPerHour="21"/>
	<flow begin="0" departLane="random" departPos="random_free" departSpeed="7" end="1800" id="flow_S53_O_S62_F_car_0" route="S53_O_S62_F" type="car" vehsPerHour="48"/>
	<flow begin="0" departLane="allowed" departPos="random_free" departSpeed="7" end="1800" id="flow_S53_O_S62_F_lightTruck_0" route="S53_O_S62_F" type="lightTruck" vehsPerHour="1"/>
	<flow begin="0" departLane="random" departPos="random_free" departSpeed="7" end="1800" id="flow_S53_O_S63_F_car_0" route="S53_O_S63_F" type="car" vehsPerHour="33"/>
	<flow begin="0" departLane="allowed" departPos="random_free" departSpeed="7" end="1800" id="flow_S53_O_S63_F_lightTruck_0" route="S53_O_S63_F" type="lightTruck" vehsPerHour="1"/>
	<flow begin="0" departLane="random" departPos="random_free" departSpeed="7" end="1800" id="flow_S53_O_S71_F_car_0" route="S53_O_S71_F" type="car" vehsPerHour="5"/>
	<flow arrivalPos="540" arrivalSpeed="26.96" begin="0" departLane="random" departPos="random_free" departSpeed="7" end="1800" id="flow_S53_O_S71_M_car_0" route="S53_O_S71_M" type="car" vehsPerHour="389"/>
	<flow arrivalPos="540" arrivalSpeed="26.96" begin="0" departLane="allowed" departPos="random_free" departSpeed="7" end="1800" id="flow_S53_O_S71_M_lightTruck_0" route="S53_O_S71_M" type="lightTruck" vehsPerHour="12"/>
	<flow arrivalLane="0" arrivalPos="100" arrivalSpeed="25.7" begin="0" departLane="random" departPos="random_free" departSpeed="7" end="1800" id="flow_S53_O_S71_H_hov_0" route="S53_O_S71_H" type="hov" vehsPerHour="27"/>
	<flow begin="0" departLane="random" departPos="random_free" departSpeed="7" end="1800" id="flow_S58_O_S62_F_car_0" route="S58_O_S62_F" type="car" vehsPerHour="251"/>
	<flow begin="0" departLane="allowed" departPos="random_free" departSpeed="7" end="1800" id="flow_S58_O_S62_F_lightTruck_0" route="S58_O_S62_F" type="lightTruck" vehsPerHour="8"/>
	<flow begin="0" departLane="random" departPos="random_free" departSpeed="7" end="1800" id="flow_S58_O_S63_F_car_0" route="S58_O_S63_F" type="car" vehsPerHour="150"/>
	<flow begin="0" departLane="allowed" departPos="random_free" departSpeed="7" end="1800" id="flow_S58_O_S63_F_lightTruck_0" route="S58_O_S63_F" type="lightTruck" vehsPerHour="5"/>
	<flow begin="0" departLane="random" departPos="random_free" departSpeed="7" end="1800" id="flow_S58_O_S71_F_car_0" route="S58_O_S71_F" type="car" vehsPerHour="3"/>
	<flow arrivalPos="540" arrivalSpeed="26.96" begin="0" departLane="random" departPos="random_free" departSpeed="7" end="1800" id="flow_S58_O_S71_M_car_0" route="S58_O_S71_M" type="car" vehsPerHour="223"/>
	<flow arrivalPos="540" arrivalSpeed="26.96" begin="0" departLane="allowed" departPos="random_free" departSpeed="7" end="1800" id="flow_S58_O_S71_M_lightTruck_0" route="S58_O_S71_M" type="lightTruck" vehsPerHour="7"/>
	<flow arrivalLane="0" arrivalPos="100" arrivalSpeed="25.7" begin="0" departLane="random" departPos="random_free" departSpeed="7" end="1800" id="flow_S58_O_S71_H_hov_0" route="S58_O_S71_H" type="hov" vehsPerHour="19"/>
	<flow begin="0" departLane="random" departPos="random_free" departSpeed="7" end="1800" id="flow_S59_O_S62_F_car_0" route="S59_O_S62_F" type="car" vehsPerHour="138"/>
	<flow begin="0" departLane="allowed" departPos="random_free" departSpeed="7" end="1800" id="flow_S59_O_S62_F_lightTruck_0" route="S59_O_S62_F" type="lightTruck" vehsPerHour="4"/>
	<flow begin="0" departLane="random" departPos="random_free" departSpeed="7" end="1800" id="flow_S59_O_S63_F_car_0" route="S59_O_S63_F" type="car" vehsPerHour="82"/>